data/transfer_capacity_uncertainty_reference_v3.csv
architecture,ac_voltage_ll_kV,ac_line_to_ground_peak_kV,dc_pole_kV,voltage_envelope_factor,current_limit_kA,ac_power_factor,dc_current_retention_factor,converter_cap_multiplier,ac_transfer_capacity_MW,dc_thermal_capacity_MW,converter_cap_MW,transfer_capacity_MW,capacity_multiplier_vs_ac,capacity_increase_pct,binding_constraint,reference_note,sample
High-voltage DC,138,112.6765281680262,158.74510262000166,1.408856886176656,2.944716123571053,0.9835302476723891,0.9963302795132779,1.7940433282322283,692.2625995689073,931.4876367762052,1241.9490981412966,931.4876367762052,1.3455697842932302,34.55697842932302,thermal_current_limit,,0
High-voltage DC,138,112.6765281680262,164.4178303529576,1.4592021339863561,3.5526076336494006,0.994591379285262,0.9943301338052615,1.5117540352305974,844.5622178873998,1161.600404229752,1276.7703408945797,1161.600404229752,1.3753876027457115,37.538760274571146,thermal_current_limit,,1
High-voltage DC,138,112.6765281680262,166.8586478904784,1.4808642989217278,3.540295423261094,0.9698314474700473,0.9901206031884076,1.842477385299495,820.6830800810733,1169.7857243466744,1512.0900155473119,1169.7857243466744,1.425380579591228,42.538057959122796,thermal_current_limit,,2
High-voltage DC,138,112.6765281680262,160.96674333737207,1.4285738649786426,3.90578682540328,0.963353221025877,0.9626310387641095,1.8446563940130187,899.3604882803795,1210.4157056111385,1659.0110752290727,1210.4157056111385,1.3458626672887437,34.58626672887437,thermal_current_limit,,3
High-voltage DC,138,112.6765281680262,156.9332656022024,1.3927768999784889,4.263410387318799,0.9829619627921068,0.9992620042323418,1.8776764821676046,1001.6905236360759,1337.1542863619788,1880.850738641613,1337.1542863619788,1.3348976103998567,33.489761039985666,thermal_current_limit,,4
High-voltage DC,138,112.6765281680262,159.3041451733446,1.4138183680614127,4.0211618673339995,0.9616132574787958,0.9604646745992445,1.5323818457273326,924.2547930536487,1230.5238171638719,1416.311265701884,1230.5238171638719,1.3313686078904063,33.13686078904063,thermal_current_limit,,5
High-voltage DC,138,112.6765281680262,167.57865779277847,1.4872543600463157,3.586870390643403,0.9824989882318016,0.9785405570258427,1.660084569389198,842.3401651561785,1176.3680419460175,1398.3559103525204,1176.3680419460175,1.3965474883035012,39.654748830350115,thermal_current_limit,,6
High-voltage DC,138,112.6765281680262,150.58451524155473,1.336431976471614,3.9906016308837886,0.9613244287567635,0.9844856827620512,1.581812476955527,916.9550950853279,1183.1998099324337,1450.4510102139134,1183.1998099324337,1.2903574191082172,29.03574191082172,thermal_current_limit,,7
High-voltage DC,138,112.6765281680262,165.50071520259243,1.468812696782718,4.424171309932147,0.9723908105068952,0.9918409220142868,1.6306483396052585,1028.2826184624446,1452.458820768654,1676.7673444407328,1452.458820768654,1.4125093575348628,41.25093575348628,thermal_current_limit,,8
High-voltage DC,138,112.6765281680262,157.66430956899163,1.3992648880153502,3.0417381429985806,0.9846937015903963,0.9768480960186307,1.7887467916940647,715.9170369475718,936.9410071161726,1280.59430295909,936.9410071161726,1.3087284681909126,30.872846819091258,thermal_current_limit,,9
High-voltage DC,138,112.6765281680262,143.16397946406767,1.2705749972219396,4.073690465754965,0.9619038737656209,0.9943543790820629,1.7823876032893167,936.6113451620815,1159.826359334738,1669.4044507170254,1159.826359334738,1.238321920106604,23.832192010660403,thermal_current_limit,,10
High-voltage DC,138,112.6765281680262,159.14914879714365,1.4124427809828881,2.990421404942264,0.9837788667851584,0.9877074659700468,1.5211988909209992,703.1849957269441,940.1454424166039,1069.684235612115,940.1454424166039,1.3369816593493908,33.698165934939084,thermal_current_limit,,11
High-voltage DC,138,112.6765281680262,159.39046143324916,1.414584421660223,3.912409501163501,0.980052156862171,0.9875910929104618,1.8186159875795103,916.5015577501853,1231.7251037355072,1666.7643855660128,1231.7251037355072,1.3439421824433426,34.39421824433426,thermal_current_limit,,12
High-voltage DC,138,112.6765281680262,161.05042230928464,1.4293165127445357,3.528541145674935,0.9764498362352863,0.9775658347444174,1.4038568346271867,823.5402629288016,1111.0486206400842,1156.1326267032684,1111.0486206400842,1.349112691453361,34.91126914533611,thermal_current_limit,,13
High-voltage DC,138,112.6765281680262,158.115115340171,1.4032657724808986,2.8499082130317017,0.9626936822654868,0.9961899088889599,1.5861447536700075,655.7808169191356,897.7933741415843,1040.1633023137188,897.7933741415843,1.3690448866123073,36.90448866123073,thermal_current_limit,,14
High-voltage DC,138,112.6765281680262,155.48565047795418,1.379929369549707,4.278892978823827,0.9659869455852894,0.9906791259347745,1.7415441691602862,987.9669018886469,1318.210440853777,1720.5879973075257,1318.210440853777,1.3342657920359682,33.426579203596816,thermal_current_limit,,15
High-voltage DC,138,112.6765281680262,158.06978679423085,1.402863483320262,2.718392659174037,0.9799293438060999,0.9951115391187786,1.5417447454810473,636.7173222352496,855.1903944068608,981.6555859129589,855.1903944068608,1.3431241220274064,34.31241220274064,thermal_current_limit,,16
High-voltage DC,138,112.6765281680262,163.80947463887756,1.4538029996327235,3.644524036322003,0.9547008457532735,0.9839807750886949,1.53758182308788,831.663879697388,1174.8879383959052,1278.751264341449,1174.8879383959052,1.4126956419261636,41.26956419261636,thermal_current_limit,,17
High-voltage DC,138,112.6765281680262,163.39178626783365,1.450096030862608,3.304648869797897,0.9591193369788704,0.983397465307042,1.665181364713164,757.5960152592181,1061.9758040244399,1261.5347665905997,1061.9758040244399,1.4017705777677243,40.17705777677243,thermal_current_limit,,18
High-voltage DC,138,112.6765281680262,157.09775059730865,1.3942366981971646,4.987256287597449,0.9788931642256751,0.9648028645298892,1.5032290966918378,1166.9082117397875,1511.8205107019387,1754.1303770558886,1511.8205107019387,1.2955779173478508,29.557791734785077,thermal_current_limit,,19
High-voltage DC,138,112.6765281680262,163.44654961342843,1.4505820535195462,4.264435852480327,0.9895260718376117,0.9757812897980066,1.9343090023571063,1008.6222424060036,1360.2534153907234,1950.9870834635442,1360.2534153907234,1.3486252416424271,34.862524164242714,thermal_current_limit,,20
High-voltage DC,138,112.6765281680262,158.95761437834403,1.410742920134194,4.680217428919416,0.9815681858459563,0.9760883863934299,1.4836759013962495,1098.060368409232,1452.3340082871453,1629.1657068870652,1452.3340082871453,1.3226358496037445,32.263584960374445,thermal_current_limit,,21
High-voltage DC,138,112.6765281680262,153.00005462389862,1.3578697987192232,3.109280595598109,0.9730736011888736,0.9776566729809757,1.7502519840374537,723.1781915173635,930.1818623641955,1265.744064515883,930.1818623641955,1.2862415837132746,28.624158371327457,thermal_current_limit,,22
High-voltage DC,138,112.6765281680262,164.37722257147192,1.4588417414348114,3.896388763087156,0.9868827266900034,0.9924105811075178,1.6888863123347058,919.1101106745261,1271.2334208372204,1552.2724854466437,1271.2334208372204,1.3831133028275298,38.31133028275298,thermal_current_limit,,23
High-voltage DC,138,112.6765281680262,162.6264089590324,1.4433033356913485,2.7956175994591224,0.9774410887313733,0.9645296525371297,1.681487340235182,653.1426908693988,877.0299357559563,1098.2511660640353,877.0299357559563,1.3427845829347658,34.278458293476575,thermal_current_limit,,24
High-voltage DC,138,112.6765281680262,156.36356220183498,1.3877208034725879,3.813212386821095,0.9744322227889348,0.969008168564202,1.4902394246808297,888.1418722875242,1155.537342163929,1323.544032792715,1155.537342163929,1.30107292339195,30.107292339195002,thermal_current_limit,,25
High-voltage DC,138,112.6765281680262,166.83456866592687,1.480650596698709,3.8199157435478943,0.9602342067916814,0.988113683228612,1.648431387201545,876.739695895182,1259.4378342179803,1445.2452331191555,1259.4378342179803,1.4365014383568546,43.65014383568546,thermal_current_limit,,26
High-voltage DC,138,112.6765281680262,167.39286095157274,1.485605419985537,2.91681290747423,0.9473979247408495,0.9847240347937455,1.825595102749493,660.5120058231588,961.5902231193339,1205.8274831380033,961.5902231193339,1.4558255030065024,45.58255030065024,thermal_current_limit,,27
High-voltage DC,138,112.6765281680262,159.7725173188791,1.417975153446529,3.5939771426588245,0.9741757222895374,0.9984207201251433,1.7473307706067474,836.8590685136949,1146.6238462271303,1462.2696010752793,1146.6238462271303,1.3701516651586196,37.015166515861964,thermal_current_limit,,28
High-voltage DC,138,112.6765281680262,156.40368063166767,1.3880768530463985,2.71303841848055,0.9653128740252968,0.9860788165850661,1.6919426120068681,625.9847536105657,836.8440596053644,1059.1302791003363,836.8440596053644,1.3368441559935778,33.68441559935778,thermal_current_limit,,29
High-voltage DC,138,112.6765281680262,166.423292756038,1.4770005382830327,2.977502938613399,0.9855622130862528,0.9687249224964091,1.74035514103808,701.4164655854382,960.0564681652396,1220.713751890377,960.0564681652396,1.3687395652509058,36.87395652509058,thermal_current_limit,,30
High-voltage DC,138,112.6765281680262,155.174173282859,1.3771650210189224,4.23653955116586,0.9801679076153769,0.9906024209466597,1.8044987110021102,992.5478611536583,1302.447079310906,1791.051336059678,1302.447079310906,1.3122259694328953,31.222596943289528,thermal_current_limit,,31
High-voltage DC,138,112.6765281680262,166.7050292508148,1.47950093920377,3.7474253336308996,0.9560803690969502,0.9739903100696344,1.4144307417683855,856.3811575968604,1216.9320310408305,1211.291835976196,1211.291835976196,1.4144307417683855,41.44307417683854,converter_rating_cap,,32
High-voltage DC,138,112.6765281680262,165.45791545577413,1.468432850620308,4.929917397196897,0.9698364455200322,0.9949514035393864,1.6331645426631567,1142.8200647145716,1623.151493590932,1866.4132083358525,1623.151493590932,1.4203036363351977,42.03036363351978,thermal_current_limit,,33
High-voltage DC,138,112.6765281680262,160.23643135204088,1.4220923732500181,3.087942528587819,0.9664235276134032,0.9752964963269423,1.9053749494417829,713.3068865998725,965.1551507456628,1359.1170729917078,965.1551507456628,1.3530714042959517,35.30714042959517,thermal_current_limit,,34
High-voltage DC,138,112.6765281680262,158.66782494228167,1.4081710496588256,4.18295608814776,0.9503819789318602,0.9998090243845389,1.8768530035919997,950.2135341130131,1327.1475874310875,1783.4111255537778,1327.1475874310875,1.3966835240564401,39.668352405644015,thermal_current_limit,,35
High-voltage DC,138,112.6765281680262,166.3845308959545,1.476656528215331,4.245761498584028,0.9885523360048536,0.9860159117747437,1.6325284471150967,1003.2172126188685,1393.1005385687145,1637.7806382358172,1393.1005385687145,1.3886330109229956,38.863301092299565,thermal_current_limit,,36
High-voltage DC,138,112.6765281680262,157.36164081163147,1.3965787140421089,3.244113823764099,0.9798495549737086,0.9653677151897667,1.8117197450311469,759.7928407526703,985.6386499022785,1376.5316917249186,985.6386499022785,1.297246561215133,29.72465612151329,thermal_current_limit,,37
High-voltage DC,138,112.6765281680262,154.10889281621326,1.3677106964673427,3.0673597314856225,0.9912922896603376,0.9675184140557505,1.8462332093639424,726.7853320431939,914.706251312114,1341.8152160967443,914.706251312114,1.258564545793216,25.856454579321596,thermal_current_limit,,38
High-voltage DC,138,112.6765281680262,161.763629171336,1.4356461971397434,3.3185402463053904,0.9607423224249015,0.9967590109186846,1.5622062794825873,762.0679996432681,1070.158577814106,1190.5074144354476,1070.158577814106,1.404282266562903,40.42822665629029,thermal_current_limit,,39
High-voltage DC,138,112.6765281680262,167.67745965554363,1.4881312229065011,2.671073680580103,0.983656371452135,0.9853815342446572,1.5244195309970543,628.0135167387828,882.6630953824765,957.3560706467459,882.6630953824765,1.4054842321962526,40.54842321962526,thermal_current_limit,,40
High-voltage DC,138,112.6765281680262,150.65549483802297,1.337061917752396,3.6543772130205934,0.9634771052729516,0.9911600131685128,1.5064978852675879,841.578219324558,1091.3702697147373,1267.8358076997088,1091.3702697147373,1.2968138250900314,29.68138250900314,thermal_current_limit,,41
High-voltage DC,138,112.6765281680262,161.4424256615167,1.4327955279272495,4.098682475078911,0.9808457556341019,0.9723481348024873,1.8344023963504206,960.9144089811851,1286.8079345633016,1762.7036945227342,1286.8079345633016,1.3391493795244958,33.91493795244958,thermal_current_limit,,42
High-voltage DC,138,112.6765281680262,150.62700877717162,1.3368091050209914,3.461198768244459,0.9823020002457523,0.9675893294109201,1.899296261940835,812.6644887049698,1008.9054271467816,1543.490625609409,1008.9054271467816,1.2414784221155444,24.147842211554437,thermal_current_limit,,43
High-voltage DC,138,112.6765281680262,159.73153124600898,1.4176114035730063,3.281099138196161,0.9668752090275453,0.9907082366592924,1.921179038235859,758.2798080202076,1038.4504458068366,1456.7912722859342,1038.4504458068366,1.3694818651681182,36.94818651681182,thermal_current_limit,,44
High-voltage DC,138,112.6765281680262,145.1056984612454,1.2878076811601789,2.9715766617174584,0.9905010587523889,0.9872558063369599,1.7710533824189991,703.5283400044752,851.3950073303428,1245.9862461925495,851.3950073303428,1.2101786934765513,21.01786934765513,thermal_current_limit,,45
High-voltage DC,138,112.6765281680262,158.33742499770605,1.405238762429644,4.820191371812227,0.9583525211606849,0.9991485481002028,1.7567437943005144,1104.1530703690892,1525.1336950168272,1939.7140543287567,1525.1336950168272,1.3812701661980755,38.12701661980755,thermal_current_limit,,46
High-voltage DC,138,112.6765281680262,159.3172036422258,1.4139342614874306,2.978750867579416,0.9846778950119628,0.9942934376982694,1.3790118623495593,701.0808171397815,943.7162332975598,966.7987633014809,943.7162332975598,1.3460876552687102,34.608765526871025,thermal_current_limit,,47
High-voltage DC,138,112.6765281680262,164.96396054026195,1.4640490191023934,3.8512153454225975,0.9856931603021242,0.9741164229295325,1.7310096944497522,907.3592274622862,1237.7351919694302,1570.6476190856552,1237.7351919694302,1.3641071303491823,36.41071303491823,thermal_current_limit,,48
High-voltage DC,138,112.6765281680262,161.8285171890148,1.4362220758851558,3.5096699761037664,0.9874018550782749,0.9821158671560367,1.6618900595381336,828.3234053003056,1115.6142642476193,1376.5824333513544,1115.6142642476193,1.3468341678008693,34.68341678008693,thermal_current_limit,,49
High-voltage DC,138,112.6765281680262,166.01082484275136,1.473339900881501,3.2049989770554155,0.9795554605761573,0.9836859348273245,1.594523084040921,750.4065893760942,1046.768776967567,1196.5406291765987,1046.768776967567,1.3949354813606785,39.493548136067844,thermal_current_limit,,50
High-voltage DC,138,112.6765281680262,165.26105553091017,1.466685726103209,3.827155799220835,0.9825419685042137,0.9662232918865227,1.4526289616498533,898.8080759472396,1222.233442459458,1305.634642085741,1222.233442459458,1.3598380735190498,35.983807351904986,thermal_current_limit,,51
High-voltage DC,138,112.6765281680262,165.38178362667983,1.4677571834664465,4.761553157067759,0.9587300770436876,0.9778538450632975,1.5243995912204387,1091.1506180662911,1540.069258654217,1663.3495561401833,1540.069258654217,1.411417666044572,41.14176660445721,thermal_current_limit,,52
High-voltage DC,138,112.6765281680262,155.26271103564682,1.3779507902845125,2.710738782160579,0.9599317870389151,0.9695967723868025,1.5010510439735996,621.9675919213303,816.1612871459185,933.6051031712585,816.1612871459185,1.312224781076939,31.222478107693895,thermal_current_limit,,53
High-voltage DC,138,112.6765281680262,152.13688541426063,1.350209204062359,4.015725845713331,0.9515303504714394,0.9615522652137118,1.7548629855669067,913.327248793067,1174.9015257514493,1602.7641826166107,1174.9015257514493,1.2863971017004523,28.63971017004523,thermal_current_limit,,54
High-voltage DC,138,112.6765281680262,156.0817968790488,1.3852201467043386,4.4864953009843624,0.9707361854561829,0.9855150051746522,1.8677150496573598,1040.9938164760124,1380.2339643890064,1944.2798176325,1380.2339643890064,1.3258810403518002,32.588104035180024,thermal_current_limit,,55
High-voltage DC,138,112.6765281680262,152.35641470197004,1.3521575183322312,3.779972470285761,0.9502147025816076,0.9743282177267671,1.5954414519685316,858.5193667427891,1122.2371909029894,1369.7173850192196,1122.2371909029894,1.307177489962448,30.717748996244797,thermal_current_limit,,56
High-voltage DC,138,112.6765281680262,146.84203349974229,1.3032175900979803,2.9620725009106295,0.9716074330132591,0.9805619918550629,1.7281512957485625,687.9014527882554,853.0041131394158,1188.7977869833421,853.0041131394158,1.2400091752706055,24.00091752706055,thermal_current_limit,,57
High-voltage DC,138,112.6765281680262,147.00465377691162,1.304660839014266,4.4610905554498475,0.9858631780285055,0.9980843495593437,1.486251441747323,1051.2291589862334,1309.089573915402,1562.3908531501152,1309.089573915402,1.245294199390207,24.52941993902069,thermal_current_limit,,58
High-voltage DC,138,112.6765281680262,167.87599762772678,1.489893240031195,3.929374202545138,0.9891918444086486,0.9947779488217581,1.8242924466847996,929.0597179309287,1312.405801406826,1694.8766259405038,1312.405801406826,1.4126172689196252,41.261726891962525,thermal_current_limit,,59
High-voltage DC,138,112.6765281680262,150.75655336785488,1.3379588084489322,4.508661407210255,0.9837149033006787,0.986608333612295,1.7242381460531868,1060.1238046497936,1341.215602182183,1827.9059035162109,1341.215602182183,1.2651499723895423,26.51499723895423,thermal_current_limit,,60
High-voltage DC,138,112.6765281680262,157.61238421751793,1.3988040524507661,3.0417690125905223,0.9733274433076472,0.9899863498970933,1.605388541247533,707.6604327614808,949.2394350230464,1136.0699498495517,949.2394350230464,1.3413770094773556,34.13770094773556,thermal_current_limit,,61
High-voltage DC,138,112.6765281680262,158.29093397863946,1.4048261563632123,3.409092996759805,0.973865992642428,0.9741127528773093,1.6586490395083957,793.5563347263268,1051.3180355368559,1316.2314523896248,1051.3180355368559,1.3248184023374008,32.48184023374008,thermal_current_limit,,62
High-voltage DC,138,112.6765281680262,157.48946889321138,1.3977131835155494,4.905962706840596,0.9680355016825115,0.9914048108755475,1.622345724494602,1135.1551954775985,1531.9929920146963,1841.6141780209161,1531.9929920146963,1.3495890237018513,34.95890237018513,thermal_current_limit,,63
High-voltage DC,138,112.6765281680262,159.5826351757956,1.4162899564834104,4.4777805385036,0.9899808994139101,0.9786514050704624,1.732899730238425,1059.569219795985,1398.6416482341776,1836.1272151534008,1398.6416482341776,1.3200097002661888,32.00097002661888,thermal_current_limit,,64
High-voltage DC,138,112.6765281680262,165.07832663859412,1.4650640139748092,3.283758528016179,0.979575366294505,0.9864939130563488,1.7706603555045477,768.8626827936525,1069.5120377934893,1361.394671249589,1069.5120377934893,1.3910312748011533,39.10312748011533,thermal_current_limit,,65
High-voltage DC,138,112.6765281680262,153.00129269352107,1.357880786541111,3.026702912782189,0.9821638511660266,0.9916772758472318,1.8603599970124076,710.5480537473456,918.4705848716198,1321.875175146584,918.4705848716198,1.2926227579228675,29.26227579228675,thermal_current_limit,,66
High-voltage DC,138,112.6765281680262,149.1776346532735,1.3239459635356876,4.835157745502228,0.9783993668867158,0.9925944723019146,1.4719669345782267,1130.7498117942962,1431.9116156148755,1664.4263342417569,1431.9116156148755,1.266338141894262,26.633814189426207,thermal_current_limit,,67
High-voltage DC,138,112.6765281680262,167.39915553863756,1.4856612842118062,4.275298535129427,0.9581598191645931,0.9947460661981893,1.7558384599430197,979.1384703640593,1423.8424438883953,1719.208983874994,1423.8424438883953,1.454178838830618,45.417883883061805,thermal_current_limit,,68
High-voltage DC,138,112.6765281680262,167.16379196777245,1.48357244126739,2.9467698679244636,0.9843200065937419,0.9751685991783009,1.754451937365667,693.3016702421793,960.7228907243228,1216.3644585352442,960.7228907243228,1.3857212984770826,38.57212984770826,thermal_current_limit,,69
High-voltage DC,138,112.6765281680262,152.02806057014405,1.3492433876151724,3.580442122667428,0.9784551385390547,0.9875815982720414,1.7476054958463394,837.3697924059846,1075.1359843831399,1463.392051264407,1075.1359843831399,1.2839440760025391,28.394407600253913,thermal_current_limit,,70
High-voltage DC,138,112.6765281680262,164.46089582546983,1.4595843384544245,3.83783115975122,0.9754163276079196,0.9947002437496728,1.7150344870627021,894.7786219772389,1255.656173419741,1534.5761949774053,1255.656173419741,1.4033149011149284,40.33149011149284,thermal_current_limit,,71
High-voltage DC,138,112.6765281680262,150.1948801923409,1.3329739798901714,3.963528935117762,0.9909161397428253,0.9671101991440858,1.4752088872425395,938.768803341663,1151.4447948509785,1384.880081755665,1151.4447948509785,1.2265477833863558,22.654778338635584,thermal_current_limit,,72
High-voltage DC,138,112.6765281680262,164.62107020043814,1.461005880079575,4.662580855720742,0.9716963708000917,0.9909643568638821,1.6417209613337809,1082.9207381069655,1521.2473213996584,1777.853675213255,1521.2473213996584,1.4047633108023436,40.47633108023436,thermal_current_limit,,73
High-voltage DC,138,112.6765281680262,154.8989842852559,1.3747227288922717,3.0753124908365015,0.9831191995594043,0.9801741618678984,1.631743866667482,722.6618750709596,933.8369795965941,1179.1990823214603,933.8369795965941,1.2922184105877992,29.22184105877992,thermal_current_limit,,74
High-voltage DC,138,112.6765281680262,167.00118140957053,1.482129278606579,4.134288240467231,0.9588329523469173,0.9830871590348413,1.666281227982125,947.5091595494767,1357.507740799023,1578.8167258984133,1357.507740799023,1.4327119976808382,43.271199768083825,thermal_current_limit,,75
High-voltage DC,138,112.6765281680262,167.0013788231841,1.4821310306450626,3.4256037907424,0.9764305278112596,0.9941673378728386,1.7096087736408843,799.499494229594,1137.487607522329,1366.8313498563634,1137.487607522329,1.4227496274008575,42.274962740085755,thermal_current_limit,,76
High-voltage DC,138,112.6765281680262,163.73625494864493,1.453153177603033,4.484461909338896,0.9959947352034086,0.998764604479167,1.5036357091130248,1067.5963886365832,1466.7237717263467,1605.2760528740732,1466.7237717263467,1.3738560633382106,37.385606333821066,thermal_current_limit,,77
High-voltage DC,138,112.6765281680262,150.27992030917136,1.3337287077666256,2.6607346893674975,0.9791021396035933,0.9883489895554375,1.7900344149005325,622.6862633473179,790.392564669365,1114.629841077515,790.392564669365,1.269327125381767,26.932712538176705,thermal_current_limit,,78
High-voltage DC,138,112.6765281680262,165.39272013914726,1.467854244608152,3.5383597365389505,0.9730206466990001,0.9771734716839829,1.7006143140596612,822.9316279401714,1143.7208498284203,1399.489305967475,1143.7208498284203,1.3898127268375822,38.98127268375822,thermal_current_limit,,79
High-voltage DC,138,112.6765281680262,166.73930716375992,1.4798051544072595,5.356958534261055,0.966918873294809,0.9941954193166983,1.4967382622893644,1238.078083544841,1776.0616255079185,1853.0788393434518,1776.0616255079185,1.4345311891982881,43.45311891982882,thermal_current_limit,,80
High-voltage DC,138,112.6765281680262,155.24214720546,1.377768287055835,5.421403818618502,0.9879600676567223,0.9957410258865315,1.4929943941024817,1280.238437840764,1676.0917754253637,1911.388810810779,1676.0917754253637,1.3092028218214113,30.920282182141136,thermal_current_limit,,81
High-voltage DC,138,112.6765281680262,162.63107422625546,1.443344739764574,2.746777139803074,0.9799705312280896,0.9650366823954066,1.879936166334435,643.392737333944,862.1856145114689,1209.5372760709927,862.1856145114689,1.3400611546909078,34.00611546909078,thermal_current_limit,,82
High-voltage DC,138,112.6765281680262,151.0637240828585,1.3406849371289495,4.714763581590301,0.964041367251027,0.9940672196959435,1.563384660761621,1086.4138761831898,1416.0084844066462,1698.4827892633741,1416.0084844066462,1.3033784963989916,30.33784963989916,thermal_current_limit,,83
High-voltage DC,138,112.6765281680262,145.98370477147225,1.2955999545333658,3.851025690245394,0.9796868453569438,0.9536843704104977,1.4344628980612855,901.7858287173951,1072.2979053980746,1293.5783132925526,1072.2979053980746,1.1890826748998682,18.90826748998682,thermal_current_limit,,84
High-voltage DC,138,112.6765281680262,154.04218740905014,1.3671186884577984,4.328100085385943,0.9845655636005488,0.996081689501446,1.4415315479094366,1018.5483523024823,1328.1952553362194,1468.2695829152035,1328.1952553362194,1.3040080545354218,30.40080545354218,thermal_current_limit,,85
High-voltage DC,138,112.6765281680262,164.5870707307701,1.4607041360498219,2.7903751522579703,0.9906916444098185,0.991776811270687,1.849392000915468,660.7555350666801,910.9661871738484,1221.996001112938,910.9661871738484,1.378673562048812,37.8673562048812,thermal_current_limit,,86
High-voltage DC,138,112.6765281680262,150.39536095752769,1.3347532392305714,3.9022145724713697,0.9620062960473982,0.9855151724687135,1.811125274231935,897.2816258785053,1156.7483728996729,1625.0894307324845,1156.7483728996729,1.2891697985759267,28.916979857592672,thermal_current_limit,,87
High-voltage DC,138,112.6765281680262,151.4903109202179,1.3444708794569138,3.25684048362423,0.9866342721752357,0.9928550198907654,1.5599317637460195,768.0551381110639,979.7091775707629,1198.1136062477844,979.7091775707629,1.2755714127246591,27.557141272465913,thermal_current_limit,,88
High-voltage DC,138,112.6765281680262,167.89381042585669,1.4900513279526064,3.872895790829603,0.9813421768884354,0.9891006267845245,1.438112672289524,908.4394588341938,1286.2961504728871,1306.4382977572916,1286.2961504728871,1.4159404217465401,41.594042174654014,thermal_current_limit,,89
High-voltage DC,138,112.6765281680262,166.25125117367702,1.4754736756333031,2.938878243059298,0.9500817321821401,0.9921182349197061,1.5461600013159655,667.3939650786133,969.4824322676351,1031.8978539242162,969.4824322676351,1.4526388954587541,45.263889545875415,thermal_current_limit,,90
High-voltage DC,138,112.6765281680262,167.88879285510345,1.4900067971986435,3.9160863535355412,0.9609876094234852,0.9838585529245747,1.8261360669022961,899.5177999099114,1293.709083311607,1642.6418972360923,1293.709083311607,1.438225106208209,43.8225106208209,thermal_current_limit,,91
High-voltage DC,138,112.6765281680262,151.1387641398772,1.3413509148462146,3.7936350885792454,0.9770646942507385,0.9986318942042692,1.6247613298718788,885.9691258326438,1145.1617889394047,1439.4883751132725,1145.1617889394047,1.2925527036432207,29.255270364322072,thermal_current_limit,,92
High-voltage DC,138,112.6765281680262,162.61612616720006,1.4432120762959844,3.6581623022871694,0.9810192501071975,0.9984921233216159,1.5279334255260082,857.788487422781,1187.9583651334485,1310.643701964663,1187.9583651334485,1.384908264160388,38.4908264160388,thermal_current_limit,,93
High-voltage DC,138,112.6765281680262,159.45083841119225,1.4151202650956283,3.2681221507194165,0.9711397260389014,0.9672639455367062,1.5166405166525132,758.6120105739651,1008.0918025864679,1150.5417116557003,1008.0918025864679,1.3288634882326034,32.886348823260334,thermal_current_limit,,94
High-voltage DC,138,112.6765281680262,158.519876007393,1.4068580083600375,3.485426890490304,0.9670423935520877,0.9890828462063802,1.7712962880146543,805.6403408448854,1092.955216001359,1427.0277452134064,1092.955216001359,1.3566292060985463,35.66292060985463,thermal_current_limit,,95
High-voltage DC,138,112.6765281680262,153.45015056305044,1.361864383451907,2.7751829427534775,0.9713221880242884,0.9883505621995626,1.633113072335856,644.3096571568325,841.7826024374989,1052.2305237350567,841.7826024374989,1.306487638493674,30.648763849367413,thermal_current_limit,,96
High-voltage DC,138,112.6765281680262,159.45013105629243,1.4151139873471803,3.76905404849841,0.9716884853847019,0.9737483087926389,1.7476162157392654,875.3850701941168,1170.3990427274798,1529.8371436872935,1170.3990427274798,1.3370105140906088,33.70105140906088,thermal_current_limit,,97
High-voltage DC,138,112.6765281680262,162.59457629742724,1.4430208220026264,4.288918801938979,0.9810897545582413,0.9903866641517045,1.6326784530720544,1005.7644443219053,1381.302056352216,1642.0899371103628,1381.302056352216,1.373385253525741,37.338525352574095,thermal_current_limit,,98
High-voltage DC,138,112.6765281680262,158.5923193560586,1.4075009403871725,3.66639720435058,0.9763035331701919,0.989560475254383,1.6552887094428825,855.586824008777,1150.784489651867,1416.243209729823,1150.784489651867,1.3450236228042496,34.50236228042496,thermal_current_limit,,99
High-voltage DC,138,112.6765281680262,166.28366004032682,1.4757613031203825,3.6806315083826275,0.9822249283033418,0.9979858624309075,1.7198470243006192,864.1179078029966,1221.5923362322178,1486.1506123798604,1221.5923362322178,1.4136870966348716,41.36870966348716,thermal_current_limit,,100
High-voltage DC,138,112.6765281680262,155.99674248118095,1.3844652920842087,2.993253607289459,0.9845030484583774,0.9957542993156127,1.7158720672046852,704.3690966567012,929.9106679371149,1208.6072579554307,929.9106679371149,1.320203672124388,32.02036721243879,thermal_current_limit,,101
High-voltage DC,138,112.6765281680262,165.63823740408475,1.4700332012101107,3.3565208840440426,0.9531507396360457,0.9617864240661531,1.6133911336441726,764.6992366444888,1069.4453397985305,1233.7589683066851,1069.4453397985305,1.3985175982276012,39.85175982276012,thermal_current_limit,,102
High-voltage DC,138,112.6765281680262,155.98330988965105,1.3843460783335872,4.407981973222391,0.9603761298695268,0.993089806414194,1.3716867857141382,1011.8610544703556,1365.640730263697,1387.9564373957605,1365.640730263697,1.349632663724292,34.96326637242919,thermal_current_limit,,103
High-voltage DC,138,112.6765281680262,157.33075631716216,1.3963046153014798,3.0013106495141293,0.9868796962035732,0.9695967407405309,1.7585783932772872,707.9700358855257,915.6842035815308,1245.020808196031,915.6842035815308,1.2933940098696368,29.339400986963682,thermal_current_limit,,104
High-voltage DC,138,112.6765281680262,167.39031830752486,1.4855828541141065,3.31954922514937,0.9695940275492844,0.9998864829533922,1.8213794098924818,769.3230745665261,1111.1946490151256,1401.2292075706491,1111.1946490151256,1.4443797225778345,44.43797225778346,thermal_current_limit,,105
High-voltage DC,138,112.6765281680262,163.53840695719052,1.451397284031664,2.650093485697815,0.9806401978057447,0.9811384687791344,1.7736148457398224,621.1701816748476,850.4352578744199,1101.7166559494124,850.4352578744199,1.369085772245876,36.9085772245876,thermal_current_limit,,106
High-voltage DC,138,112.6765281680262,160.42434665555712,1.4237601145850725,4.437220439035753,0.9623995174199218,0.9702330981474845,1.5409717903755267,1020.7188029870871,1381.2979447307985,1572.8988813089761,1381.2979447307985,1.3532600170472935,35.32600170472935,thermal_current_limit,,107
High-voltage DC,138,112.6765281680262,160.9918459991425,1.4287966501689442,3.045299336139727,0.9963888510443802,0.9958003747496053,1.963190123685051,725.2680749619122,976.4188367072869,1423.8391217892954,976.4188367072869,1.3462868012749134,34.62868012749134,thermal_current_limit,,108
High-voltage DC,138,112.6765281680262,157.77450937407573,1.4002429071900249,3.523405779763052,0.9727992297441638,0.9641464910531008,1.8149222438845345,819.2672496971417,1071.9450457563014,1486.9063551614477,1071.9450457563014,1.3084192565399961,30.841925653999613,thermal_current_limit,,109
High-voltage DC,138,112.6765281680262,151.3334762049452,1.3430789771874472,2.806207587832153,0.9735616543402879,0.9712677368466222,1.8859583720822528,653.0147159269909,824.9426570835805,1231.5585705954225,824.9426570835805,1.263283409949695,26.3283409949695,thermal_current_limit,,110
High-voltage DC,138,112.6765281680262,155.4473434115069,1.3795893957586245,3.630160657534878,0.9636399129411446,0.9850070543748537,1.753051664333306,836.142578189335,1111.6766573813668,1465.8011383147552,1111.6766573813668,1.3295300184194665,32.95300184194665,thermal_current_limit,,111
High-voltage DC,138,112.6765281680262,154.18290560815572,1.3683675572452332,3.944084978517944,0.9542083356849603,0.9959235338569056,1.7723939512392815,899.5580274759509,1211.2630803248667,1594.3712066871146,1211.2630803248667,1.3465091115061492,34.65091115061492,thermal_current_limit,,112
High-voltage DC,138,112.6765281680262,164.4451191436447,1.4594443209895482,3.7175127779716295,0.9801063805812422,0.962052850463837,1.6582079489994803,870.8942039987382,1176.2574419877953,1444.1236918082827,1176.2574419877953,1.3506318409135945,35.063184091359446,thermal_current_limit,,113
High-voltage DC,138,112.6765281680262,165.674805726484,1.4703577437123851,4.489508568309492,0.9685007992855215,0.9847337195167496,1.8200218416704768,1039.2941960892733,1464.886847901593,1891.5381368038368,1464.886847901593,1.4095016150516078,40.95016150516078,thermal_current_limit,,114
High-voltage DC,138,112.6765281680262,166.61368941428046,1.4786903015490658,3.3669450287396523,0.9748066022324557,0.9883120066211944,1.855218792092071,784.5022644930681,1108.8448257956059,1455.4233435263243,1108.8448257956059,1.4134373805945892,41.34373805945892,thermal_current_limit,,115
High-voltage DC,138,112.6765281680262,160.54187020470334,1.42480313171612,4.744771518417482,0.9746000101224778,0.9662002867178385,1.6734881220943167,1105.3032051737766,1471.9761715828133,1849.7117851710927,1471.9761715828133,1.3317397115042184,33.17397115042184,thermal_current_limit,,116
High-voltage DC,138,112.6765281680262,152.22912871970215,1.351027859970038,2.728316834195384,0.9789101192092158,0.9791056539013301,1.5589614901523872,638.3771512549891,813.3025210316124,995.2053949997137,813.3025210316124,1.274015712236468,27.40157122364679,thermal_current_limit,,117
High-voltage DC,138,112.6765281680262,158.93433937060388,1.4105363553054886,2.623936912238981,0.9906700777176244,0.9777279224077817,1.7576756679628138,621.3297497935049,815.4909464481364,1092.0961829934668,815.4909464481364,1.3124929986358447,31.24929986358447,thermal_current_limit,,118
High-voltage DC,138,112.6765281680262,163.50020700818138,1.4510582609038642,3.881503227263182,0.9658312418563636,0.9898048292632082,1.9495305305749602,896.0678897363772,1256.312909622834,1746.9117085089445,1256.312909622834,1.4020287123472763,40.20287123472763,thermal_current_limit,,119
High-voltage DC,138,112.6765281680262,164.42236480960707,1.4592423771206025,4.996172095344769,0.9738528299659949,0.9975217811104564,1.8022563086734984,1162.9751468569625,1638.8932352692827,2095.979295253449,1638.8932352692827,1.40922464224496,40.92246422449599,thermal_current_limit,,120
High-voltage DC,138,112.6765281680262,166.00082639831246,1.4732511650586861,3.5344497021797796,0.9838261385218561,0.9668896470643733,1.8064486900564356,831.1508938764134,1134.5900262405635,1501.4314434822825,1134.5900262405635,1.3650830849124604,36.50830849124604,thermal_current_limit,,121
High-voltage DC,138,112.6765281680262,162.69761300538514,1.4439352689565141,3.283871595296551,0.9764341752450506,0.9992395957717356,1.9535342211991173,766.4235700496457,1067.7436053349204,1497.2346720255819,1067.7436053349204,1.3931507942347812,39.31507942347812,thermal_current_limit,,122
High-voltage DC,138,112.6765281680262,164.2444418527488,1.4576633174907836,2.793238156794118,0.982125554468054,0.9794318221196483,1.508217245209126,655.7143546061791,898.6754000696789,988.9596975482115,898.6754000696789,1.3705287885750523,37.052878857505235,thermal_current_limit,,123
High-voltage DC,138,112.6765281680262,159.75308217922722,1.4178026673044029,5.109650356231106,0.9836541061130024,0.9996371879112558,1.7034113405294633,1201.3603828146188,1631.972472291999,2046.410900149239,1631.972472291999,1.3584370648784976,35.84370648784976,thermal_current_limit,,124
High-voltage DC,138,112.6765281680262,164.91646916095482,1.4636275348760042,4.331330898073153,0.9714290057950572,0.9645618742193297,1.740921306525572,1005.708554376665,1377.9881377387917,1750.8594504693679,1377.9881377387917,1.370166467951408,37.01664679514081,thermal_current_limit,,125
High-voltage DC,138,112.6765281680262,165.35080472730783,1.4674822468858144,2.8197917945462136,0.9904943175239158,0.9596138867271742,1.6611728387591693,667.5883427171545,894.8492430256842,1108.9796223939848,894.8492430256842,1.340420714033972,34.04207140339719,thermal_current_limit,,126
High-voltage DC,138,112.6765281680262,163.04896210501758,1.447053479158274,4.536490883065486,0.9561949837503758,0.9922273074062181,1.8220137521751405,1036.8268068153825,1467.8418030815333,1889.1127006414647,1467.8418030815333,1.415705876268781,41.57058762687811,thermal_current_limit,,127
High-voltage DC,138,112.6765281680262,165.02524415330365,1.4645929088906047,3.8847893748149116,0.9823171767574239,0.9610638724937608,1.5865088177603868,912.1345979666703,1232.253637369876,1447.1095826584478,1232.253637369876,1.350955922642135,35.09559226421351,thermal_current_limit,,128
High-voltage DC,138,112.6765281680262,142.65816709510932,1.2660859312453585,2.7493497687387896,0.986952025657206,0.9858688354325991,1.786878413751872,648.5832823255976,773.3494258609585,1158.9394667079464,773.3494258609585,1.192367190051511,19.236719005151095,thermal_current_limit,,129
High-voltage DC,138,112.6765281680262,166.41578684459844,1.4769339235979553,4.492125897971476,0.9710363228834882,0.9909759932416488,1.5884101717627328,1042.6225382427724,1481.6293468288375,1656.1122450538985,1481.6293468288375,1.421060155985083,42.10601559850831,thermal_current_limit,,130
High-voltage DC,138,112.6765281680262,165.80480035605112,1.4715114412186951,3.460119235705198,0.968901131745709,0.977337869847471,1.7545460238623831,801.327859161574,1121.4060315526997,1405.9666091020954,1121.4060315526997,1.399434724166488,39.943472416648795,thermal_current_limit,,131
High-voltage DC,138,112.6765281680262,166.28587938237297,1.475780999698563,3.369107200247994,0.9656822919890761,0.9716560431484776,1.4722906176566708,777.6582994183806,1088.7113563544922,1144.9390179765237,1088.7113563544922,1.3999868029039897,39.998680290398966,thermal_current_limit,,132
High-voltage DC,138,112.6765281680262,165.12407080452607,1.465469991747427,3.4788120975045014,0.9815925823964871,0.9999685743759706,1.6220663285006798,816.2100788922019,1148.8351262126116,1323.946885953924,1148.8351262126116,1.4075238176081626,40.752381760816256,thermal_current_limit,,133
High-voltage DC,138,112.6765281680262,161.3314603179955,1.431810714627396,3.828763511304359,0.9581210117617946,0.999939464285846,1.7952861330001382,876.8365014651,1235.3252311596827,1574.1724119886494,1235.3252311596827,1.4088433009980612,40.88433009980612,thermal_current_limit,,134
High-voltage DC,138,112.6765281680262,166.69496196044102,1.4794115923758417,3.4074205859929765,0.9706868998599126,0.985246155681519,1.5168603690386318,790.5778187468118,1119.2393273595662,1199.1961618980454,1119.2393273595662,1.4157231594654829,41.57231594654829,thermal_current_limit,,135
High-voltage DC,138,112.6765281680262,152.9885073676628,1.3577673172492706,3.912022616082773,0.9526964564046287,0.956646198349416,1.698306378024577,890.8316129735742,1145.0949778907907,1512.9050100589427,1145.0949778907907,1.2854224762730315,28.54224762730315,thermal_current_limit,,136
High-voltage DC,138,112.6765281680262,158.36385363385025,1.4054733155932344,3.7200873040848785,0.9687036915693674,0.9989696148862888,1.8136531111622418,861.3582162332717,1177.0406665320972,1562.2050086966324,1177.0406665320972,1.3664938051897944,36.649380518979434,thermal_current_limit,,137
High-voltage DC,138,112.6765281680262,166.4352206408073,1.4771063978170744,4.707880829368677,0.9661323190755887,0.9742434071904436,1.6374462263544178,1087.180827921202,1526.750842480406,1780.200144044444,1526.750842480406,1.4043209770353524,40.43209770353524,thermal_current_limit,,138
High-voltage DC,138,112.6765281680262,164.12455514587776,1.4565993274227524,3.301306003886011,0.9756496975118187,0.9884299620792086,1.7782297807051788,769.8735687569043,1071.1128782067904,1369.0121073413034,1071.1128782067904,1.3912841298556198,39.12841298556198,thermal_current_limit,,139
High-voltage DC,138,112.6765281680262,156.18925376825987,1.3861738226025775,3.276130363403868,0.9640685053109658,0.9697130390911335,1.8673501268025976,754.9336502043496,992.3972583095522,1409.7254474366403,992.3972583095522,1.3145489779676989,31.454897796769888,thermal_current_limit,,140
High-voltage DC,138,112.6765281680262,164.89055924998934,1.463397585379097,3.5989938004436723,0.9767093250631842,0.9942669207584997,1.6917080424301594,840.2067117292856,1180.0757227423896,1421.3844515362312,1180.0757227423896,1.4045064223702723,40.45064223702723,thermal_current_limit,,141
High-voltage DC,138,112.6765281680262,163.03731742945254,1.446950133095395,4.289367879982709,0.9974785120904572,0.9951286617106546,1.8831991253915128,1022.6724531539669,1391.8407481393212,1925.8958693415434,1391.8407481393212,1.360983904325205,36.0983904325205,thermal_current_limit,,142
High-voltage DC,138,112.6765281680262,161.10389011896365,1.4297910375683682,4.944942394427295,0.9610815186333566,0.9659604321146503,1.7780405257898115,1135.9551280148507,1539.0637058255134,2019.7742530891578,1539.0637058255134,1.3548631172739356,35.48631172739356,thermal_current_limit,,143
High-voltage DC,138,112.6765281680262,158.62425912117664,1.4077844046155912,2.965086698018051,0.975079295236938,0.9594660909854812,1.9249562336105845,691.0620513941383,902.5403550983485,1330.2642036428647,902.5403550983485,1.3060192688595431,30.601926885954313,thermal_current_limit,,144
High-voltage DC,138,112.6765281680262,154.248404247387,1.3689488552342306,3.672708514952821,0.9499292408537426,0.9627994564258001,1.6991130727552242,833.9066401768087,1090.869938094032,1416.9016737818024,1090.869938094032,1.3081439642484929,30.81439642484929,thermal_current_limit,,145
High-voltage DC,138,112.6765281680262,146.9450184950754,1.3041315781042448,2.8565245387567675,0.9673891927166283,0.9667033206465979,1.6668467422459614,660.5092503956985,811.5514034464032,1100.967692245392,811.5514034464032,1.2286753031243973,22.867530312439733,thermal_current_limit,,146
High-voltage DC,138,112.6765281680262,153.13911927263766,1.3591039923086075,3.493661660680612,0.9809691742357799,0.9774805189535987,1.6714081609393285,819.1735444799425,1045.9359620139717,1369.173347469372,1045.9359620139717,1.27681853138701,27.681853138700994,thermal_current_limit,,147
High-voltage DC,138,112.6765281680262,149.89074795070553,1.3302748175483763,3.6578150893867463,0.9419964214032917,0.9964425603229645,1.3207743081513645,823.5893344757934,1092.644385543124,1087.7756334431087,1087.7756334431087,1.3207743081513645,32.07743081513645,converter_rating_cap,,148
High-voltage DC,138,112.6765281680262,156.43942176460916,1.388394054272977,4.45324576565614,0.9742754258269288,0.9828377458173688,1.8247326592137652,1037.0462510767109,1369.413763529259,1892.3321634548727,1369.413763529259,1.3204943965685894,32.04943965685894,thermal_current_limit,,149
High-voltage DC,138,112.6765281680262,156.18920842142316,1.386173420151087,4.0216504702357465,0.964996729870057,0.9746212739835052,1.7098197044956145,927.6195176818836,1224.3941021021176,1586.0621296072027,1224.3941021021176,1.3199313713901495,31.993137139014948,thermal_current_limit,,150
High-voltage DC,138,112.6765281680262,156.38411915598016,1.3879032456766511,3.571091053510562,0.9634052750702103,0.9982282235208065,1.4303811775005708,822.336670888055,1114.9449182380524,1176.2548956067556,1114.9449182380524,1.3558253665545583,35.58253665545583,thermal_current_limit,,151
High-voltage DC,138,112.6765281680262,151.32585283789922,1.3430113200882277,4.7515883721919545,0.9813954212602417,0.960882786867972,1.5199360817907916,1114.609016922167,1381.8227873879625,1694.1344619093647,1381.8227873879625,1.2397376716040465,23.97376716040465,thermal_current_limit,,152
High-voltage DC,138,112.6765281680262,152.57079594706298,1.354060143915203,3.881059012111697,0.9447141782285671,0.9588435729348556,1.4967747789905281,876.3758338579104,1135.5320993825371,1311.7372450353137,1135.5320993825371,1.2957136145388561,29.571361453885615,thermal_current_limit,,153
High-voltage DC,138,112.6765281680262,161.23036479595703,1.4309134956264014,2.5997843931430924,0.964081806015617,0.9884120873803457,1.8548137287226132,599.0884310809547,828.6138962710252,1111.197446687846,828.6138962710252,1.3831245159849443,38.312451598494434,thermal_current_limit,,154
High-voltage DC,138,112.6765281680262,162.10523018389205,1.4386778934309767,4.50144686588797,0.986735134799435,0.9701707390856754,1.8217059573035033,1061.6770621774735,1415.8828552702375,1934.0634289011855,1415.8828552702375,1.3336285634412188,33.36285634412188,thermal_current_limit,,155
High-voltage DC,138,112.6765281680262,166.74426563450638,1.4798491606508586,5.17454920796185,0.964702881633728,0.9837067289386948,1.759563443951608,1193.1795760543323,1697.536286264352,2099.4751640948803,1697.536286264352,1.4226997514304196,42.26997514304196,thermal_current_limit,,156
High-voltage DC,138,112.6765281680262,165.21003144418526,1.4662328892297758,3.8402000241451484,0.9694565203093318,0.9782134328746281,1.832339310253741,889.8604311619362,1241.2346130663734,1630.5262486573588,1241.2346130663734,1.3948643737823359,39.48643737823359,thermal_current_limit,,157
High-voltage DC,138,112.6765281680262,158.2309220426316,1.4042935526614158,2.7503058473335464,0.9627871382262223,0.9781795863331757,1.4653418808956986,632.9231573080547,851.3750953132012,927.448809792229,851.3750953132012,1.3451476462549816,34.51476462549816,thermal_current_limit,,158
High-voltage DC,138,112.6765281680262,144.5733013662764,1.2830826767282437,4.080785261567777,0.9688365874017234,0.9703400932631696,1.8038512424691955,945.0047403207324,1144.948130429175,1704.6479749668324,1144.948130429175,1.2115792456666221,21.15792456666221,thermal_current_limit,,159
High-voltage DC,138,112.6765281680262,156.06170956550957,1.3850418725431997,3.0144466130396,0.9822883220373918,0.9971704212700527,1.755895483427898,707.7604517581992,938.2170913584187,1242.7533805911107,938.2170913584187,1.3256138980748717,32.561389807487174,thermal_current_limit,,160
High-voltage DC,138,112.6765281680262,163.33951545023604,1.449632129299013,5.261764578427354,0.9585721508580262,0.9707932643205726,1.7213697254831144,1205.5797211174822,1668.7044572162265,2075.24843358801,1668.7044572162265,1.3841510668987218,38.41510668987218,thermal_current_limit,,161
High-voltage DC,138,112.6765281680262,144.32468119031648,1.2808761819062773,3.0162469840966413,0.9431013305789636,0.999826814616492,1.752353392766052,679.9312029953187,870.4869870061266,1191.4797504163498,870.4869870061266,1.2802574483585214,28.02574483585214,thermal_current_limit,,162
High-voltage DC,138,112.6765281680262,166.1970946211113,1.4749930382419472,3.2605785616271437,0.9888987676226877,0.9866128533820903,1.7665053166377258,770.7015246881272,1069.2884131904339,1361.448340902378,1069.2884131904339,1.3874222107230594,38.74222107230594,thermal_current_limit,,163
High-voltage DC,138,112.6765281680262,161.67943677220478,1.4348989927263658,4.43702856116166,0.9510112338678647,0.977145680743111,1.781941247800106,1008.5967981552154,1401.9622644196554,1797.2602370318962,1401.9622644196554,1.3900126066074463,39.00126066074463,thermal_current_limit,,164
High-voltage DC,138,112.6765281680262,161.6995080515241,1.4350771245843994,3.2307016712817633,0.9466019167969971,0.9740458177073921,1.8671255845037587,730.9773996501935,1017.6886631315659,1364.8266045809053,1017.6886631315659,1.392229997286615,39.2229997286615,thermal_current_limit,,165
High-voltage DC,138,112.6765281680262,160.94779651646093,1.4284057126471925,4.124431201115878,0.9782863986262094,0.9814708793990273,1.786998221002837,964.4279604238799,1303.0362956348429,1723.4310495628679,1303.0362956348429,1.351097592672593,35.1097592672593,thermal_current_limit,,166
High-voltage DC,138,112.6765281680262,164.37571336742306,1.4588283473049657,3.6698696926202667,0.9768869991835406,0.9995836937912288,1.6830735383255828,856.9089670819084,1205.972634389378,1442.240807249468,1205.972634389378,1.4073521000674791,40.73521000674791,thermal_current_limit,,167
High-voltage DC,138,112.6765281680262,164.95202382376974,1.463943081187139,2.944467234436613,0.9454706221820659,0.9860634880123232,1.6778710105660366,665.4178988124685,957.8538473085134,1116.4854023292053,957.8538473085134,1.4394771301131783,43.94771301131784,thermal_current_limit,,168
High-voltage DC,138,112.6765281680262,157.8269200388678,1.4007080498922735,4.98491985461787,0.9884929459030766,0.9913092483049868,1.528650289151037,1177.799779041531,1559.8341177589525,1800.443972793864,1559.8341177589525,1.3243627189574725,32.43627189574725,thermal_current_limit,,169
High-voltage DC,138,112.6765281680262,152.91502828199432,1.3571151930947272,3.16746502215392,0.960694449216454,0.9963406641233624,1.8893726262621695,727.3389125487923,965.1611862448627,1374.2142313849822,965.1611862448627,1.3269758699732932,32.69758699732932,thermal_current_limit,,170
High-voltage DC,138,112.6765281680262,163.98579742287046,1.4553678577878308,3.674468422420763,0.9735785963318836,0.9968605840182023,1.6642367955919017,855.0770511119239,1201.3378917406537,1423.050691526681,1201.3378917406537,1.4049469462178406,40.494694621784056,thermal_current_limit,,171
High-voltage DC,138,112.6765281680262,163.94855798663372,1.4550373591751897,2.96871281536782,0.9823948783765543,0.9942425171646597,1.7466282979442014,697.098247067383,967.8278501485515,1217.5715247751896,967.8278501485515,1.3883664952825499,38.83664952825499,thermal_current_limit,,172
High-voltage DC,138,112.6765281680262,165.98298833286904,1.4730928528908067,3.155159881915095,0.98926538072653,0.9946681496096025,1.486954184243775,746.060241000545,1041.8211210768354,1109.3573970536797,1041.8211210768354,1.3964302931887163,39.643029318871626,thermal_current_limit,,173
High-voltage DC,138,112.6765281680262,144.9557370763106,1.286476779442022,4.108330672345863,0.9824592029294328,0.999477889852622,1.6633189206805616,964.7607597163752,1190.4303410857449,1604.7048255664,1190.4303410857449,1.23391247943761,23.391247943760995,thermal_current_limit,,174
High-voltage DC,138,112.6765281680262,157.8188069703516,1.400636046710705,3.7996549405669304,0.9883847215352215,0.9782459062785949,1.7615835732718252,897.6559127571157,1173.2240296626399,1581.2959103632618,1173.2240296626399,1.3069863552272798,30.69863552272798,thermal_current_limit,,175
High-voltage DC,138,112.6765281680262,161.80532641153854,1.436016258596912,3.1427741279612347,0.9713358571974585,0.9983575580847114,1.7045665456007315,729.6629659612847,1015.3647660041902,1243.7590813414113,1015.3647660041902,1.3915531051606977,39.155310516069775,thermal_current_limit,,176
High-voltage DC,138,112.6765281680262,157.80755808240033,1.4005362132481893,4.024696067386918,0.9700881099260025,0.9681044671991624,1.5387572516052532,933.2198862563968,1229.73945947096,1435.9988673192602,1229.73945947096,1.317738163943386,31.773816394338606,thermal_current_limit,,177
High-voltage DC,138,112.6765281680262,167.32273726327762,1.4849830748579824,4.195845670444552,0.9685437665717291,0.9746777605020496,1.486074116380242,971.3560958286147,1368.5652831199438,1443.5071517990702,1368.5652831199438,1.4089223190106097,40.892231901060974,thermal_current_limit,,178
High-voltage DC,138,112.6765281680262,155.0944606080776,1.3764575739926659,3.683928657631792,0.9880519148940696,0.9724771051097265,1.5549865627927884,870.022910367573,1111.2630627956617,1352.8739349434504,1111.2630627956617,1.277280229696673,27.7280229696673,thermal_current_limit,,179
High-voltage DC,138,112.6765281680262,154.60779201766368,1.3721384083392105,4.970276674749637,0.9735290909359655,0.9606269841664306,1.7105142739469583,1156.5627806378347,1476.375128425481,1978.317144996801,1476.375128425481,1.276519660792882,27.651966079288194,thermal_current_limit,,180
High-voltage DC,138,112.6765281680262,159.86485305489407,1.4187946296721123,3.2940852809014456,0.9795733001126566,0.9666352091983852,1.5972418235920975,771.278972765036,1018.0765565999426,1231.9190329574658,1018.0765565999426,1.3199848466633766,31.998484666337657,thermal_current_limit,,181
High-voltage DC,138,112.6765281680262,166.14420594331784,1.474523653192076,5.151187892155782,0.9832001268793089,0.9974774118283221,1.9535199521848952,1210.567557686014,1707.362180181384,2364.8678774073674,1707.362180181384,1.4103815762624494,41.03815762624494,thermal_current_limit,,182
High-voltage DC,138,112.6765281680262,148.0866269279452,1.3142633105194235,3.7435826102673615,0.9924899373718709,0.9685602758551567,1.6264403226726312,888.0823671154646,1073.8902787109405,1444.4129717311505,1073.8902787109405,1.2092237369817274,20.922373698172734,thermal_current_limit,,183
High-voltage DC,138,112.6765281680262,165.69417515830924,1.4705296466999918,3.0891975721872176,0.9552560457816942,0.9892669128872296,1.7356920251803696,705.3508493191528,1012.7363674413376,1224.271844117454,1012.7363674413376,1.4357909520047958,43.57909520047958,thermal_current_limit,,184
High-voltage DC,138,112.6765281680262,151.6637461995943,1.3460101111158602,4.14810986019036,0.9646538666046621,0.9961501126161898,1.7521943730536973,956.4482416303564,1253.3916961015696,1675.8832271018134,1253.3916961015696,1.3104647398013352,31.046473980133516,thermal_current_limit,,185
High-voltage DC,138,112.6765281680262,157.308401480161,1.3961062169538858,4.246698605663633,0.9666548095281895,0.9818141071077963,1.8167026897201295,981.2113640840292,1311.7848808733763,1782.5693243154133,1311.7848808733763,1.3369034734916068,33.690347349160675,thermal_current_limit,,186
High-voltage DC,138,112.6765281680262,167.0883672277351,1.4829030495026305,2.959163212664734,0.9622789691420782,0.9673677385865062,1.8794060181406562,680.6277116884626,956.6139942779889,1279.1758174606,956.6139942779889,1.4054878722244137,40.548787222441376,thermal_current_limit,,187
High-voltage DC,138,112.6765281680262,165.7041851240402,1.4706184847738455,3.5516748653303454,0.9651971337013389,0.9711832523675006,1.6804586389589407,819.3867543252891,1143.135888260752,1376.9455499544592,1143.135888260752,1.395111505313567,39.5111505313567,thermal_current_limit,,188
High-voltage DC,138,112.6765281680262,163.61610600890322,1.45208686022802,3.3648941022942847,0.9642615237620332,0.9961338988543729,1.867487810295732,775.5431253412092,1096.844769599806,1448.3173329333633,1096.844769599806,1.4142924277966316,41.429242779663156,thermal_current_limit,,189
High-voltage DC,138,112.6765281680262,154.31197533147568,1.3695130462429728,4.856673624488978,0.9756937101782759,0.9747384569825073,1.5375687731966756,1132.640634591935,1461.021632928296,1741.5128710022257,1461.021632928296,1.2899251433396342,28.992514333963413,thermal_current_limit,,190
High-voltage DC,138,112.6765281680262,164.6676544150417,1.461419313252934,3.698679677752798,0.9884063204428747,0.985974349239692,1.7143823963794254,873.8199358188218,1201.0210872009004,1498.0615155731873,1201.0210872009004,1.374449171928621,37.44491719286209,thermal_current_limit,,191
High-voltage DC,138,112.6765281680262,158.6568854090753,1.408073961708174,4.925999163184595,0.9758854181051999,0.9681490242776345,1.5097196903106325,1149.0339908185786,1513.301511658731,1734.7192407750144,1513.301511658731,1.3170206658383066,31.702066583830657,thermal_current_limit,,192
High-voltage DC,138,112.6765281680262,167.291274547164,1.484703844421749,3.16045910701438,0.9740128479108592,0.9702223192110914,1.7405062919119054,735.7911751201789,1025.9465183991485,1280.649169829926,1025.9465183991485,1.3943446905728079,39.434469057280786,thermal_current_limit,,193
High-voltage DC,138,112.6765281680262,145.52972293241763,1.2915708825834595,3.3363405169084692,0.9646504169275865,0.967244804343643,1.8921055009191265,769.2722027701548,939.2657221312589,1455.5441665655835,939.2657221312589,1.2209796724084871,22.097967240848714,thermal_current_limit,,194
High-voltage DC,138,112.6765281680262,159.2703614731417,1.4135185389776437,3.127058038535682,0.9782035352892244,0.9816406086084511,1.731462781675458,731.1473052655357,977.8076242947709,1265.9543469895796,977.8076242947709,1.3373606347898033,33.73606347898033,thermal_current_limit,,195
High-voltage DC,138,112.6765281680262,165.28704131485563,1.4669163489699937,3.0666056445759304,0.9963019840756822,0.9930585250772572,1.7050503103996877,730.2787099160404,1006.7034945407535,1245.161941020628,1006.7034945407535,1.378519571872078,37.851957187207795,thermal_current_limit,,196
High-voltage DC,138,112.6765281680262,156.63234405845412,1.3901062324611198,4.30909845512805,0.9902429015546773,0.9611922618019029,1.6461810030659105,1019.9241346724363,1297.5022686229215,1678.979735066202,1297.5022686229215,1.2721556677738914,27.215566777389142,thermal_current_limit,,197
High-voltage DC,138,112.6765281680262,164.2577763816957,1.4577816609396252,4.774813734991446,0.9786587763382611,0.9945431078805234,1.572367607982649,1116.933825230659,1560.0408893848482,1756.2305670528415,1560.0408893848482,1.3967173830219375,39.671738302193745,thermal_current_limit,,198
High-voltage DC,138,112.6765281680262,162.44410330752996,1.4416853798094404,3.272486826784782,0.97242182979119,0.9524024844363398,1.9695301752148937,760.62802099322,1012.5870606461974,1498.0798394601345,1012.5870606461974,1.3312513248249414,33.12513248249414,thermal_current_limit,,199
...
